<routes>
    <vType id="autonomous_car_0" guiShape="passenger" color="green" laneChangeModel="LC2013" carFollowModel="IDM" emergencyDecel="9.00"/>
    <vType id="autonomous_truck_0" vClass="truck" emissionClass="HBEFA3/HDV" guiShape="truck" color="yellow" laneChangeModel="LC2013" carFollowModel="IDM" accel="1.30" decel="4.00" emergencyDecel="7.00" tau="1.00"/>
    <vType id="human_operated_car_0" guiShape="passenger" color="blue" laneChangeModel="LC2013" lcSpeedGain="3.1" lcAssertive="3.4" carFollowModel="IDM" emergencyDecel="9.00" tau="1.50">
        <param key="errorNoiseIntensityCoefficient" value="0.5"/>
        <param key="errorTimeScaleCoefficient" value="100"/>
        <param key="headwayChangePerceptionThreshold" value="1"/>
        <param key="headwayErrorCoefficient" value="4"/>
        <param key="initialAwareness" value="1.1"/>
        <param key="speedDifferenceChangePerceptionThreshold" value="1"/>
        <param key="speedDifferenceErrorCoefficient" value="1"/>
    </vType>
    <vType id="human_operated_truck_0" vClass="truck" emissionClass="HBEFA3/PC_G_EU4" color="red" laneChangeModel="LC2013" lcSpeedGain="2.0" lcAssertive="1.5" carFollowModel="IDM" accel="1.30" decel="4.00" emergencyDecel="7.00" tau="2.30">
        <param key="errorNoiseIntensityCoefficient" value="0.5"/>
        <param key="errorTimeScaleCoefficient" value="100"/>
        <param key="headwayChangePerceptionThreshold" value="1"/>
        <param key="headwayErrorCoefficient" value="4"/>
        <param key="initialAwareness" value="1.1"/>
        <param key="speedDifferenceChangePerceptionThreshold" value="1"/>
        <param key="speedDifferenceErrorCoefficient" value="1"/>
    </vType>
<vehicle id="vehicle_0" type="autonomous_truck_0" depart="0" departLane="1" departPos="0" departSpeed="9.322607838141106"><route edges="gneE0" /><param key="has.ssm.device" value="true" /><param key="device.ssm.measures" value="TTC DRAC" /><param key="device.ssm.thresholds" value="3.0 3.4" /><param key="device.ssm.file" value="SSMs.xml" /></vehicle><vehicle id="vehicle_1" type="autonomous_truck_0" depart="0" departLane="0" departPos="0" departSpeed="23.546904625873605"><route edges="-gneE0" /><param key="has.ssm.device" value="true" /><param key="device.ssm.measures" value="TTC DRAC" /><param key="device.ssm.thresholds" value="3.0 3.4" /><param key="device.ssm.file" value="SSMs.xml" /></vehicle><vehicle id="vehicle_2" type="human_operated_car_0" depart="0" departLane="0" departPos="0" departSpeed="14.069639682118773"><route edges="gneE0" /><param key="has.ssm.device" value="true" /><param key="device.ssm.measures" value="TTC DRAC" /><param key="device.ssm.thresholds" value="3.0 3.4" /><param key="device.ssm.file" value="SSMs.xml" /></vehicle><vehicle id="vehicle_3" type="human_operated_truck_0" depart="0" departLane="0" departPos="0" departSpeed="23.923739168418116"><route edges="gneE0" /><param key="has.ssm.device" value="true" /><param key="device.ssm.measures" value="TTC DRAC" /><param key="device.ssm.thresholds" value="3.0 3.4" /><param key="device.ssm.file" value="SSMs.xml" /></vehicle><vehicle id="vehicle_4" type="autonomous_truck_0" depart="0" departLane="1" departPos="0" departSpeed="8.317962274131546"><route edges="-gneE0" /><param key="has.ssm.device" value="true" /><param key="device.ssm.measures" value="TTC DRAC" /><param key="device.ssm.thresholds" value="3.0 3.4" /><param key="device.ssm.file" value="SSMs.xml" /></vehicle><vehicle id="vehicle_5" type="autonomous_car_0" depart="0" departLane="0" departPos="0" departSpeed="21.37632048574026"><route edges="gneE0" /><param key="has.ssm.device" value="true" /><param key="device.ssm.measures" value="TTC DRAC" /><param key="device.ssm.thresholds" value="3.0 3.4" /><param key="device.ssm.file" value="SSMs.xml" /></vehicle><vehicle id="vehicle_6" type="human_operated_car_0" depart="0" departLane="0" departPos="0" departSpeed="9.24212894055266"><route edges="-gneE0" /><param key="has.ssm.device" value="true" /><param key="device.ssm.measures" value="TTC DRAC" /><param key="device.ssm.thresholds" value="3.0 3.4" /><param key="device.ssm.file" value="SSMs.xml" /></vehicle><vehicle id="vehicle_7" type="human_operated_car_0" depart="0" departLane="1" departPos="0" departSpeed="11.798052067052582"><route edges="-gneE0" /><param key="has.ssm.device" value="true" /><param key="device.ssm.measures" value="TTC DRAC" /><param key="device.ssm.thresholds" value="3.0 3.4" /><param key="device.ssm.file" value="SSMs.xml" /></vehicle><vehicle id="vehicle_8" type="human_operated_truck_0" depart="0" departLane="0" departPos="0" departSpeed="12.629936626527865"><route edges="-gneE0" /><param key="has.ssm.device" value="true" /><param key="device.ssm.measures" value="TTC DRAC" /><param key="device.ssm.thresholds" value="3.0 3.4" /><param key="device.ssm.file" value="SSMs.xml" /></vehicle><vehicle id="vehicle_9" type="autonomous_car_0" depart="0" departLane="0" departPos="0" departSpeed="18.783672268740677"><route edges="-gneE0" /><param key="has.ssm.device" value="true" /><param key="device.ssm.measures" value="TTC DRAC" /><param key="device.ssm.thresholds" value="3.0 3.4" /><param key="device.ssm.file" value="SSMs.xml" /></vehicle><vehicle id="vehicle_10" type="human_operated_truck_0" depart="0" departLane="1" departPos="0" departSpeed="14.443151495112463"><route edges="-gneE0" /><param key="has.ssm.device" value="true" /><param key="device.ssm.measures" value="TTC DRAC" /><param key="device.ssm.thresholds" value="3.0 3.4" /><param key="device.ssm.file" value="SSMs.xml" /></vehicle><vehicle id="vehicle_11" type="human_operated_car_0" depart="0" departLane="0" departPos="0" departSpeed="10.4344298493592"><route edges="-gneE0" /><param key="has.ssm.device" value="true" /><param key="device.ssm.measures" value="TTC DRAC" /><param key="device.ssm.thresholds" value="3.0 3.4" /><param key="device.ssm.file" value="SSMs.xml" /></vehicle><vehicle id="vehicle_12" type="human_operated_car_0" depart="0" departLane="1" departPos="0" departSpeed="14.539617222529255"><route edges="-gneE0" /><param key="has.ssm.device" value="true" /><param key="device.ssm.measures" value="TTC DRAC" /><param key="device.ssm.thresholds" value="3.0 3.4" /><param key="device.ssm.file" value="SSMs.xml" /></vehicle><vehicle id="vehicle_13" type="human_operated_truck_0" depart="0" departLane="1" departPos="0" departSpeed="22.70100910037231"><route edges="-gneE0" /><param key="has.ssm.device" value="true" /><param key="device.ssm.measures" value="TTC DRAC" /><param key="device.ssm.thresholds" value="3.0 3.4" /><param key="device.ssm.file" value="SSMs.xml" /></vehicle><vehicle id="vehicle_14" type="autonomous_car_0" depart="0" departLane="1" departPos="0" departSpeed="8.601093361082977"><route edges="gneE0" /><param key="has.ssm.device" value="true" /><param key="device.ssm.measures" value="TTC DRAC" /><param key="device.ssm.thresholds" value="3.0 3.4" /><param key="device.ssm.file" value="SSMs.xml" /></vehicle><vehicle id="vehicle_15" type="human_operated_truck_0" depart="0" departLane="0" departPos="0" departSpeed="17.683621108446232"><route edges="-gneE0" /><param key="has.ssm.device" value="true" /><param key="device.ssm.measures" value="TTC DRAC" /><param key="device.ssm.thresholds" value="3.0 3.4" /><param key="device.ssm.file" value="SSMs.xml" /></vehicle><vehicle id="vehicle_16" type="human_operated_car_0" depart="0" departLane="0" departPos="0" departSpeed="10.485629967904337"><route edges="-gneE0" /><param key="has.ssm.device" value="true" /><param key="device.ssm.measures" value="TTC DRAC" /><param key="device.ssm.thresholds" value="3.0 3.4" /><param key="device.ssm.file" value="SSMs.xml" /></vehicle><vehicle id="vehicle_17" type="human_operated_car_0" depart="0" departLane="1" departPos="0" departSpeed="21.711900892547114"><route edges="gneE0" /><param key="has.ssm.device" value="true" /><param key="device.ssm.measures" value="TTC DRAC" /><param key="device.ssm.thresholds" value="3.0 3.4" /><param key="device.ssm.file" value="SSMs.xml" /></vehicle><vehicle id="vehicle_18" type="autonomous_car_0" depart="0" departLane="1" departPos="0" departSpeed="12.806403653441656"><route edges="gneE0" /><param key="has.ssm.device" value="true" /><param key="device.ssm.measures" value="TTC DRAC" /><param key="device.ssm.thresholds" value="3.0 3.4" /><param key="device.ssm.file" value="SSMs.xml" /></vehicle><vehicle id="vehicle_19" type="autonomous_car_0" depart="0" departLane="0" departPos="0" departSpeed="7.1650954059177145"><route edges="gneE0" /><param key="has.ssm.device" value="true" /><param key="device.ssm.measures" value="TTC DRAC" /><param key="device.ssm.thresholds" value="3.0 3.4" /><param key="device.ssm.file" value="SSMs.xml" /></vehicle><vehicle id="vehicle_20" type="autonomous_car_0" depart="0" departLane="0" departPos="0" departSpeed="14.045805362385135"><route edges="-gneE0" /><param key="has.ssm.device" value="true" /><param key="device.ssm.measures" value="TTC DRAC" /><param key="device.ssm.thresholds" value="3.0 3.4" /><param key="device.ssm.file" value="SSMs.xml" /></vehicle><vehicle id="vehicle_21" type="autonomous_car_0" depart="0" departLane="1" departPos="0" departSpeed="24.836108307052125"><route edges="gneE0" /><param key="has.ssm.device" value="true" /><param key="device.ssm.measures" value="TTC DRAC" /><param key="device.ssm.thresholds" value="3.0 3.4" /><param key="device.ssm.file" value="SSMs.xml" /></vehicle><vehicle id="vehicle_22" type="human_operated_car_0" depart="0" departLane="1" departPos="0" departSpeed="18.55850430554542"><route edges="gneE0" /><param key="has.ssm.device" value="true" /><param key="device.ssm.measures" value="TTC DRAC" /><param key="device.ssm.thresholds" value="3.0 3.4" /><param key="device.ssm.file" value="SSMs.xml" /></vehicle><vehicle id="vehicle_23" type="autonomous_car_0" depart="0" departLane="1" departPos="0" departSpeed="12.754348555275861"><route edges="-gneE0" /><param key="has.ssm.device" value="true" /><param key="device.ssm.measures" value="TTC DRAC" /><param key="device.ssm.thresholds" value="3.0 3.4" /><param key="device.ssm.file" value="SSMs.xml" /></vehicle><vehicle id="vehicle_24" type="human_operated_car_0" depart="0" departLane="1" departPos="0" departSpeed="23.627732237463576"><route edges="-gneE0" /><param key="has.ssm.device" value="true" /><param key="device.ssm.measures" value="TTC DRAC" /><param key="device.ssm.thresholds" value="3.0 3.4" /><param key="device.ssm.file" value="SSMs.xml" /></vehicle><vehicle id="vehicle_25" type="human_operated_car_0" depart="0" departLane="1" departPos="0" departSpeed="18.484303390557415"><route edges="-gneE0" /><param key="has.ssm.device" value="true" /><param key="device.ssm.measures" value="TTC DRAC" /><param key="device.ssm.thresholds" value="3.0 3.4" /><param key="device.ssm.file" value="SSMs.xml" /></vehicle><vehicle id="vehicle_26" type="human_operated_car_0" depart="0" departLane="1" departPos="0" departSpeed="23.71507004984685"><route edges="-gneE0" /><param key="has.ssm.device" value="true" /><param key="device.ssm.measures" value="TTC DRAC" /><param key="device.ssm.thresholds" value="3.0 3.4" /><param key="device.ssm.file" value="SSMs.xml" /></vehicle><vehicle id="vehicle_27" type="human_operated_car_0" depart="0" departLane="0" departPos="0" departSpeed="19.576334177381007"><route edges="-gneE0" /><param key="has.ssm.device" value="true" /><param key="device.ssm.measures" value="TTC DRAC" /><param key="device.ssm.thresholds" value="3.0 3.4" /><param key="device.ssm.file" value="SSMs.xml" /></vehicle><vehicle id="vehicle_28" type="human_operated_car_0" depart="0" departLane="1" departPos="0" departSpeed="13.037584874039368"><route edges="gneE0" /><param key="has.ssm.device" value="true" /><param key="device.ssm.measures" value="TTC DRAC" /><param key="device.ssm.thresholds" value="3.0 3.4" /><param key="device.ssm.file" value="SSMs.xml" /></vehicle><vehicle id="vehicle_29" type="autonomous_car_0" depart="0" departLane="1" departPos="0" departSpeed="12.783475690204275"><route edges="gneE0" /><param key="has.ssm.device" value="true" /><param key="device.ssm.measures" value="TTC DRAC" /><param key="device.ssm.thresholds" value="3.0 3.4" /><param key="device.ssm.file" value="SSMs.xml" /></vehicle><vehicle id="vehicle_30" type="autonomous_car_0" depart="0" departLane="0" departPos="0" departSpeed="20.311926292384328"><route edges="-gneE0" /><param key="has.ssm.device" value="true" /><param key="device.ssm.measures" value="TTC DRAC" /><param key="device.ssm.thresholds" value="3.0 3.4" /><param key="device.ssm.file" value="SSMs.xml" /></vehicle><vehicle id="vehicle_31" type="human_operated_car_0" depart="0" departLane="1" departPos="0" departSpeed="8.298275248918316"><route edges="gneE0" /><param key="has.ssm.device" value="true" /><param key="device.ssm.measures" value="TTC DRAC" /><param key="device.ssm.thresholds" value="3.0 3.4" /><param key="device.ssm.file" value="SSMs.xml" /></vehicle><vehicle id="vehicle_32" type="autonomous_car_0" depart="0" departLane="1" departPos="0" departSpeed="23.190913582671097"><route edges="gneE0" /><param key="has.ssm.device" value="true" /><param key="device.ssm.measures" value="TTC DRAC" /><param key="device.ssm.thresholds" value="3.0 3.4" /><param key="device.ssm.file" value="SSMs.xml" /></vehicle><vehicle id="vehicle_33" type="human_operated_car_0" depart="0" departLane="1" departPos="0" departSpeed="7.7422270355525225"><route edges="-gneE0" /><param key="has.ssm.device" value="true" /><param key="device.ssm.measures" value="TTC DRAC" /><param key="device.ssm.thresholds" value="3.0 3.4" /><param key="device.ssm.file" value="SSMs.xml" /></vehicle><vehicle id="vehicle_34" type="human_operated_car_0" depart="0" departLane="1" departPos="0" departSpeed="6.347236214467012"><route edges="gneE0" /><param key="has.ssm.device" value="true" /><param key="device.ssm.measures" value="TTC DRAC" /><param key="device.ssm.thresholds" value="3.0 3.4" /><param key="device.ssm.file" value="SSMs.xml" /></vehicle><vehicle id="vehicle_35" type="human_operated_car_0" depart="0" departLane="1" departPos="0" departSpeed="9.207589745058451"><route edges="gneE0" /><param key="has.ssm.device" value="true" /><param key="device.ssm.measures" value="TTC DRAC" /><param key="device.ssm.thresholds" value="3.0 3.4" /><param key="device.ssm.file" value="SSMs.xml" /></vehicle><vehicle id="vehicle_36" type="human_operated_car_0" depart="0" departLane="1" departPos="0" departSpeed="18.75309644649384"><route edges="-gneE0" /><param key="has.ssm.device" value="true" /><param key="device.ssm.measures" value="TTC DRAC" /><param key="device.ssm.thresholds" value="3.0 3.4" /><param key="device.ssm.file" value="SSMs.xml" /></vehicle><vehicle id="vehicle_37" type="human_operated_car_0" depart="0" departLane="0" departPos="0" departSpeed="21.897149908736754"><route edges="-gneE0" /><param key="has.ssm.device" value="true" /><param key="device.ssm.measures" value="TTC DRAC" /><param key="device.ssm.thresholds" value="3.0 3.4" /><param key="device.ssm.file" value="SSMs.xml" /></vehicle><vehicle id="vehicle_38" type="human_operated_car_0" depart="0" departLane="0" departPos="0" departSpeed="7.041351338110635"><route edges="-gneE0" /><param key="has.ssm.device" value="true" /><param key="device.ssm.measures" value="TTC DRAC" /><param key="device.ssm.thresholds" value="3.0 3.4" /><param key="device.ssm.file" value="SSMs.xml" /></vehicle><vehicle id="vehicle_39" type="human_operated_car_0" depart="0" departLane="0" departPos="0" departSpeed="15.248669317618003"><route edges="gneE0" /><param key="has.ssm.device" value="true" /><param key="device.ssm.measures" value="TTC DRAC" /><param key="device.ssm.thresholds" value="3.0 3.4" /><param key="device.ssm.file" value="SSMs.xml" /></vehicle><vehicle id="vehicle_40" type="human_operated_car_0" depart="0" departLane="0" departPos="0" departSpeed="11.985480500646942"><route edges="-gneE0" /><param key="has.ssm.device" value="true" /><param key="device.ssm.measures" value="TTC DRAC" /><param key="device.ssm.thresholds" value="3.0 3.4" /><param key="device.ssm.file" value="SSMs.xml" /></vehicle><vehicle id="vehicle_41" type="human_operated_car_0" depart="0" departLane="0" departPos="0" departSpeed="23.10594396704312"><route edges="gneE0" /><param key="has.ssm.device" value="true" /><param key="device.ssm.measures" value="TTC DRAC" /><param key="device.ssm.thresholds" value="3.0 3.4" /><param key="device.ssm.file" value="SSMs.xml" /></vehicle><vehicle id="vehicle_42" type="human_operated_truck_0" depart="0" departLane="0" departPos="0" departSpeed="22.750229302427257"><route edges="-gneE0" /><param key="has.ssm.device" value="true" /><param key="device.ssm.measures" value="TTC DRAC" /><param key="device.ssm.thresholds" value="3.0 3.4" /><param key="device.ssm.file" value="SSMs.xml" /></vehicle><vehicle id="vehicle_43" type="human_operated_truck_0" depart="0" departLane="1" departPos="0" departSpeed="23.468330348439444"><route edges="-gneE0" /><param key="has.ssm.device" value="true" /><param key="device.ssm.measures" value="TTC DRAC" /><param key="device.ssm.thresholds" value="3.0 3.4" /><param key="device.ssm.file" value="SSMs.xml" /></vehicle><vehicle id="vehicle_44" type="human_operated_car_0" depart="0" departLane="1" departPos="0" departSpeed="23.23546995129573"><route edges="-gneE0" /><param key="has.ssm.device" value="true" /><param key="device.ssm.measures" value="TTC DRAC" /><param key="device.ssm.thresholds" value="3.0 3.4" /><param key="device.ssm.file" value="SSMs.xml" /></vehicle><vehicle id="vehicle_45" type="human_operated_car_0" depart="0" departLane="0" departPos="0" departSpeed="20.93889726227293"><route edges="-gneE0" /><param key="has.ssm.device" value="true" /><param key="device.ssm.measures" value="TTC DRAC" /><param key="device.ssm.thresholds" value="3.0 3.4" /><param key="device.ssm.file" value="SSMs.xml" /></vehicle><vehicle id="vehicle_46" type="human_operated_car_0" depart="0" departLane="1" departPos="0" departSpeed="8.000390221851685"><route edges="-gneE0" /><param key="has.ssm.device" value="true" /><param key="device.ssm.measures" value="TTC DRAC" /><param key="device.ssm.thresholds" value="3.0 3.4" /><param key="device.ssm.file" value="SSMs.xml" /></vehicle><vehicle id="vehicle_47" type="human_operated_car_0" depart="0" departLane="0" departPos="0" departSpeed="23.811554208239397"><route edges="gneE0" /><param key="has.ssm.device" value="true" /><param key="device.ssm.measures" value="TTC DRAC" /><param key="device.ssm.thresholds" value="3.0 3.4" /><param key="device.ssm.file" value="SSMs.xml" /></vehicle><vehicle id="vehicle_48" type="human_operated_car_0" depart="0" departLane="1" departPos="0" departSpeed="11.159128026262671"><route edges="-gneE0" /><param key="has.ssm.device" value="true" /><param key="device.ssm.measures" value="TTC DRAC" /><param key="device.ssm.thresholds" value="3.0 3.4" /><param key="device.ssm.file" value="SSMs.xml" /></vehicle><vehicle id="vehicle_49" type="human_operated_car_0" depart="0" departLane="0" departPos="0" departSpeed="18.31584454807907"><route edges="-gneE0" /><param key="has.ssm.device" value="true" /><param key="device.ssm.measures" value="TTC DRAC" /><param key="device.ssm.thresholds" value="3.0 3.4" /><param key="device.ssm.file" value="SSMs.xml" /></vehicle><vehicle id="vehicle_50" type="human_operated_truck_0" depart="0" departLane="1" departPos="0" departSpeed="15.217413505347787"><route edges="gneE0" /><param key="has.ssm.device" value="true" /><param key="device.ssm.measures" value="TTC DRAC" /><param key="device.ssm.thresholds" value="3.0 3.4" /><param key="device.ssm.file" value="SSMs.xml" /></vehicle><vehicle id="vehicle_51" type="human_operated_car_0" depart="0" departLane="0" departPos="0" departSpeed="12.088169149359729"><route edges="gneE0" /><param key="has.ssm.device" value="true" /><param key="device.ssm.measures" value="TTC DRAC" /><param key="device.ssm.thresholds" value="3.0 3.4" /><param key="device.ssm.file" value="SSMs.xml" /></vehicle><vehicle id="vehicle_52" type="human_operated_car_0" depart="0" departLane="0" departPos="0" departSpeed="18.7700601351645"><route edges="gneE0" /><param key="has.ssm.device" value="true" /><param key="device.ssm.measures" value="TTC DRAC" /><param key="device.ssm.thresholds" value="3.0 3.4" /><param key="device.ssm.file" value="SSMs.xml" /></vehicle><vehicle id="vehicle_53" type="autonomous_truck_0" depart="0" departLane="1" departPos="0" departSpeed="15.599294310131826"><route edges="-gneE0" /><param key="has.ssm.device" value="true" /><param key="device.ssm.measures" value="TTC DRAC" /><param key="device.ssm.thresholds" value="3.0 3.4" /><param key="device.ssm.file" value="SSMs.xml" /></vehicle><vehicle id="vehicle_54" type="human_operated_truck_0" depart="0" departLane="0" departPos="0" departSpeed="10.38290954415223"><route edges="gneE0" /><param key="has.ssm.device" value="true" /><param key="device.ssm.measures" value="TTC DRAC" /><param key="device.ssm.thresholds" value="3.0 3.4" /><param key="device.ssm.file" value="SSMs.xml" /></vehicle><vehicle id="vehicle_55" type="human_operated_car_0" depart="0" departLane="1" departPos="0" departSpeed="21.996254143537556"><route edges="gneE0" /><param key="has.ssm.device" value="true" /><param key="device.ssm.measures" value="TTC DRAC" /><param key="device.ssm.thresholds" value="3.0 3.4" /><param key="device.ssm.file" value="SSMs.xml" /></vehicle><vehicle id="vehicle_56" type="autonomous_truck_0" depart="0" departLane="0" departPos="0" departSpeed="23.884788746477962"><route edges="gneE0" /><param key="has.ssm.device" value="true" /><param key="device.ssm.measures" value="TTC DRAC" /><param key="device.ssm.thresholds" value="3.0 3.4" /><param key="device.ssm.file" value="SSMs.xml" /></vehicle><vehicle id="vehicle_57" type="human_operated_car_0" depart="0" departLane="0" departPos="0" departSpeed="11.591512115066728"><route edges="gneE0" /><param key="has.ssm.device" value="true" /><param key="device.ssm.measures" value="TTC DRAC" /><param key="device.ssm.thresholds" value="3.0 3.4" /><param key="device.ssm.file" value="SSMs.xml" /></vehicle><vehicle id="vehicle_58" type="autonomous_car_0" depart="0" departLane="1" departPos="0" departSpeed="13.746785321943646"><route edges="-gneE0" /><param key="has.ssm.device" value="true" /><param key="device.ssm.measures" value="TTC DRAC" /><param key="device.ssm.thresholds" value="3.0 3.4" /><param key="device.ssm.file" value="SSMs.xml" /></vehicle><vehicle id="vehicle_59" type="autonomous_car_0" depart="0" departLane="1" departPos="0" departSpeed="12.426425955243342"><route edges="-gneE0" /><param key="has.ssm.device" value="true" /><param key="device.ssm.measures" value="TTC DRAC" /><param key="device.ssm.thresholds" value="3.0 3.4" /><param key="device.ssm.file" value="SSMs.xml" /></vehicle><vehicle id="vehicle_60" type="human_operated_car_0" depart="0" departLane="0" departPos="0" departSpeed="22.14489439023503"><route edges="-gneE0" /><param key="has.ssm.device" value="true" /><param key="device.ssm.measures" value="TTC DRAC" /><param key="device.ssm.thresholds" value="3.0 3.4" /><param key="device.ssm.file" value="SSMs.xml" /></vehicle><vehicle id="vehicle_61" type="human_operated_car_0" depart="0" departLane="0" departPos="0" departSpeed="17.0705295750219"><route edges="gneE0" /><param key="has.ssm.device" value="true" /><param key="device.ssm.measures" value="TTC DRAC" /><param key="device.ssm.thresholds" value="3.0 3.4" /><param key="device.ssm.file" value="SSMs.xml" /></vehicle><vehicle id="vehicle_62" type="human_operated_car_0" depart="0" departLane="1" departPos="0" departSpeed="6.208449087156773"><route edges="-gneE0" /><param key="has.ssm.device" value="true" /><param key="device.ssm.measures" value="TTC DRAC" /><param key="device.ssm.thresholds" value="3.0 3.4" /><param key="device.ssm.file" value="SSMs.xml" /></vehicle><vehicle id="vehicle_63" type="human_operated_truck_0" depart="0" departLane="0" departPos="0" departSpeed="7.900794023574475"><route edges="gneE0" /><param key="has.ssm.device" value="true" /><param key="device.ssm.measures" value="TTC DRAC" /><param key="device.ssm.thresholds" value="3.0 3.4" /><param key="device.ssm.file" value="SSMs.xml" /></vehicle><vehicle id="vehicle_64" type="human_operated_car_0" depart="0" departLane="0" departPos="0" departSpeed="17.05856660056361"><route edges="-gneE0" /><param key="has.ssm.device" value="true" /><param key="device.ssm.measures" value="TTC DRAC" /><param key="device.ssm.thresholds" value="3.0 3.4" /><param key="device.ssm.file" value="SSMs.xml" /></vehicle><vehicle id="vehicle_65" type="human_operated_car_0" depart="0" departLane="1" departPos="0" departSpeed="24.976261383218425"><route edges="gneE0" /><param key="has.ssm.device" value="true" /><param key="device.ssm.measures" value="TTC DRAC" /><param key="device.ssm.thresholds" value="3.0 3.4" /><param key="device.ssm.file" value="SSMs.xml" /></vehicle><vehicle id="vehicle_66" type="human_operated_car_0" depart="0" departLane="1" departPos="0" departSpeed="12.594227795373861"><route edges="-gneE0" /><param key="has.ssm.device" value="true" /><param key="device.ssm.measures" value="TTC DRAC" /><param key="device.ssm.thresholds" value="3.0 3.4" /><param key="device.ssm.file" value="SSMs.xml" /></vehicle><vehicle id="vehicle_67" type="autonomous_car_0" depart="0" departLane="0" departPos="0" departSpeed="9.36313769467213"><route edges="gneE0" /><param key="has.ssm.device" value="true" /><param key="device.ssm.measures" value="TTC DRAC" /><param key="device.ssm.thresholds" value="3.0 3.4" /><param key="device.ssm.file" value="SSMs.xml" /></vehicle><vehicle id="vehicle_68" type="human_operated_truck_0" depart="0" departLane="0" departPos="0" departSpeed="8.470685263726443"><route edges="gneE0" /><param key="has.ssm.device" value="true" /><param key="device.ssm.measures" value="TTC DRAC" /><param key="device.ssm.thresholds" value="3.0 3.4" /><param key="device.ssm.file" value="SSMs.xml" /></vehicle><vehicle id="vehicle_69" type="human_operated_truck_0" depart="0" departLane="1" departPos="0" departSpeed="11.092570936558495"><route edges="gneE0" /><param key="has.ssm.device" value="true" /><param key="device.ssm.measures" value="TTC DRAC" /><param key="device.ssm.thresholds" value="3.0 3.4" /><param key="device.ssm.file" value="SSMs.xml" /></vehicle><vehicle id="vehicle_70" type="human_operated_truck_0" depart="0" departLane="1" departPos="0" departSpeed="9.240180616412685"><route edges="gneE0" /><param key="has.ssm.device" value="true" /><param key="device.ssm.measures" value="TTC DRAC" /><param key="device.ssm.thresholds" value="3.0 3.4" /><param key="device.ssm.file" value="SSMs.xml" /></vehicle><vehicle id="vehicle_71" type="autonomous_car_0" depart="0" departLane="1" departPos="0" departSpeed="17.053645492186952"><route edges="gneE0" /><param key="has.ssm.device" value="true" /><param key="device.ssm.measures" value="TTC DRAC" /><param key="device.ssm.thresholds" value="3.0 3.4" /><param key="device.ssm.file" value="SSMs.xml" /></vehicle><vehicle id="vehicle_72" type="human_operated_truck_0" depart="0" departLane="1" departPos="0" departSpeed="21.197476850486876"><route edges="-gneE0" /><param key="has.ssm.device" value="true" /><param key="device.ssm.measures" value="TTC DRAC" /><param key="device.ssm.thresholds" value="3.0 3.4" /><param key="device.ssm.file" value="SSMs.xml" /></vehicle><vehicle id="vehicle_73" type="human_operated_car_0" depart="0" departLane="1" departPos="0" departSpeed="22.214302947163876"><route edges="-gneE0" /><param key="has.ssm.device" value="true" /><param key="device.ssm.measures" value="TTC DRAC" /><param key="device.ssm.thresholds" value="3.0 3.4" /><param key="device.ssm.file" value="SSMs.xml" /></vehicle><vehicle id="vehicle_74" type="autonomous_car_0" depart="0" departLane="0" departPos="0" departSpeed="20.37402613197935"><route edges="-gneE0" /><param key="has.ssm.device" value="true" /><param key="device.ssm.measures" value="TTC DRAC" /><param key="device.ssm.thresholds" value="3.0 3.4" /><param key="device.ssm.file" value="SSMs.xml" /></vehicle><vehicle id="vehicle_75" type="human_operated_car_0" depart="0" departLane="0" departPos="0" departSpeed="12.580808750999783"><route edges="-gneE0" /><param key="has.ssm.device" value="true" /><param key="device.ssm.measures" value="TTC DRAC" /><param key="device.ssm.thresholds" value="3.0 3.4" /><param key="device.ssm.file" value="SSMs.xml" /></vehicle><vehicle id="vehicle_76" type="human_operated_car_0" depart="0" departLane="0" departPos="0" departSpeed="9.007465461458963"><route edges="gneE0" /><param key="has.ssm.device" value="true" /><param key="device.ssm.measures" value="TTC DRAC" /><param key="device.ssm.thresholds" value="3.0 3.4" /><param key="device.ssm.file" value="SSMs.xml" /></vehicle><vehicle id="vehicle_77" type="human_operated_car_0" depart="0" departLane="0" departPos="0" departSpeed="23.029382356482234"><route edges="-gneE0" /><param key="has.ssm.device" value="true" /><param key="device.ssm.measures" value="TTC DRAC" /><param key="device.ssm.thresholds" value="3.0 3.4" /><param key="device.ssm.file" value="SSMs.xml" /></vehicle><vehicle id="vehicle_78" type="autonomous_car_0" depart="0" departLane="1" departPos="0" departSpeed="21.84326912870341"><route edges="gneE0" /><param key="has.ssm.device" value="true" /><param key="device.ssm.measures" value="TTC DRAC" /><param key="device.ssm.thresholds" value="3.0 3.4" /><param key="device.ssm.file" value="SSMs.xml" /></vehicle><vehicle id="vehicle_79" type="human_operated_truck_0" depart="0" departLane="0" departPos="0" departSpeed="19.300143018167567"><route edges="gneE0" /><param key="has.ssm.device" value="true" /><param key="device.ssm.measures" value="TTC DRAC" /><param key="device.ssm.thresholds" value="3.0 3.4" /><param key="